      96
      0 E_pot = -7.8245046834    18.6421483111 0.0 0.0 0.0 18.6421483111 0.0 0.0 0.0 18.6421483111
 O -4.583000000  5.333000000  1.560000000
 H -3.777000000  5.331000000  0.943000000
 H -5.081000000  4.589000000  1.176000000
 O -0.083000000  4.218000000  0.070000000
 H -0.431000000  3.397000000  0.609000000
 H  0.377000000  3.756000000 -0.688000000
 O -1.488000000  2.692000000  4.125000000
 H -2.465000000  2.433000000  3.916000000
 H -1.268000000  2.145000000  4.952000000
 O -2.461000000 -2.548000000 -6.136000000
 H -1.892000000 -2.241000000 -6.921000000
 H -1.970000000 -3.321000000 -5.773000000
 O  4.032000000  0.161000000  2.183000000
 H  4.272000000 -0.052000000  1.232000000
 H  4.044000000 -0.760000000  2.641000000
 O  2.950000000 -3.497000000 -1.006000000
 H  2.599000000 -3.901000000 -0.129000000
 H  3.193000000 -4.283000000 -1.533000000
 O -2.890000000 -4.797000000 -2.735000000
 H -2.810000000 -5.706000000 -2.297000000
 H -2.437000000 -4.128000000 -2.039000000
 O -0.553000000  0.922000000 -3.731000000
 H -0.163000000  1.552000000 -3.085000000
 H -1.376000000  0.544000000 -3.469000000
 O  4.179000000  4.017000000  4.278000000
 H  3.275000000  3.832000000  3.876000000
 H  4.658000000  4.492000000  3.572000000
 O  5.739000000  1.425000000  3.944000000
 H  5.125000000  2.066000000  4.346000000
 H  5.173000000  1.181000000  3.097000000
 O  0.988000000 -0.760000000 -5.445000000
 H  1.640000000 -1.372000000 -4.989000000
 H  0.546000000 -0.220000000 -4.762000000
 O -0.748000000  1.985000000  1.249000000
 H -0.001000000  1.490000000  1.540000000
 H -1.160000000  2.255000000  2.109000000
 O  4.127000000 -0.234000000 -3.149000000
 H  5.022000000 -0.436000000 -3.428000000
 H  3.540000000 -0.918000000 -3.601000000
 O -2.473000000  2.768000000 -1.395000000
 H -1.533000000  2.719000000 -1.214000000
 H -2.702000000  1.808000000 -1.479000000
 O -0.124000000 -2.116000000  2.404000000
 H  0.612000000 -2.593000000  2.010000000
 H  0.265000000 -1.498000000  3.089000000
 O  0.728000000  2.823000000 -2.190000000
 H  0.646000000  3.694000000 -2.685000000
 H  1.688000000  2.705000000 -1.947000000
 O  4.256000000 -5.427000000 -2.644000000
 H  5.222000000 -5.046000000 -2.479000000
 H  4.174000000 -5.628000000 -3.593000000
 O -3.178000000 -0.508000000 -4.227000000
 H -2.762000000 -1.221000000 -4.818000000
 H -3.603000000  0.073000000 -4.956000000
 O -1.449000000  5.300000000 -4.805000000
 H -1.397000000  4.470000000 -5.317000000
 H -2.102000000  5.091000000 -4.067000000
 O  3.354000000  2.192000000 -1.755000000
 H  3.407000000  1.433000000 -2.405000000
 H  3.971000000  2.958000000 -2.196000000
 O  1.773000000 -4.018000000  1.769000000
 H  1.121000000 -4.532000000  1.201000000
 H  1.975000000 -4.529000000  2.618000000
 O  1.526000000  1.384000000  2.712000000
 H  2.317000000  1.070000000  2.251000000
 H  1.353000000  0.657000000  3.364000000
 O  2.711000000 -2.398000000 -4.253000000
 H  2.202000000 -3.257000000 -4.120000000
 H  3.305000000 -2.610000000 -5.099000000
 O  6.933000000  0.093000000 -1.393000000
 H  6.160000000 -0.137000000 -0.795000000
 H  6.748000000 -0.394000000 -2.229000000
 O -5.605000000 -2.549000000  3.151000000
 H -4.756000000 -2.503000000  3.616000000
 H -5.473000000 -3.187000000  2.378000000
 O  0.821000000 -4.406000000  6.516000000
 H  0.847000000 -3.675000000  7.225000000
 H -0.014000000 -4.240000000  5.988000000
 O  1.577000000  3.933000000  3.762000000
 H  1.221000000  2.975000000  3.640000000
 H  1.367000000  4.126000000  4.659000000
 O -2.111000000 -3.741000000 -0.219000000
 H -1.378000000 -4.425000000 -0.036000000
 H -1.825000000 -2.775000000  0.003000000
 O  0.926000000 -1.961000000 -2.063000000
 H  0.149000000 -1.821000000 -1.402000000
 H  1.725000000 -2.303000000 -1.536000000
 O  4.531000000 -1.030000000 -0.547000000
 H  4.290000000 -1.980000000 -0.581000000
 H  4.292000000 -0.597000000 -1.390000000
 O -0.740000000 -1.262000000 -0.029000000
 H -1.272000000 -0.422000000 -0.099000000
 H -0.403000000 -1.349000000  0.873000000
 O  3.655000000  3.021000000  0.988000000
 H  2.706000000  3.053000000  1.282000000
 H  3.542000000  2.615000000  0.020000000
      96
      1 E_pot = -7.8988460241    18.6421483111 0.0 0.0 0.0 18.6421483111 0.0 0.0 0.0 18.6421483111
 O -4.580044506  5.331359258  1.563257367
 H -3.787863631  5.338026337  0.952745710
 H -5.085077579  4.579754686  1.173758189
 O -0.088750575  4.217928375  0.076117702
 H -0.442150986  3.424531587  0.585386700
 H  0.397799826  3.749313055 -0.683590540
 O -1.485050008  2.689086490  4.126071349
 H -2.444939226  2.457162654  3.916305121
 H -1.268129577  2.166346752  4.935805984
 O -2.454010412 -2.544250086 -6.139985842
 H -1.923218882 -2.247176446 -6.912344659
 H -1.977717084 -3.302959098 -5.762738858
 O  4.032223674  0.157540161  2.187147477
 H  4.296603191 -0.041975394  1.239859138
 H  4.051404333 -0.736917983  2.647545694
 O  2.949031552 -3.496376025 -1.012458900
 H  2.596871472 -3.913920681 -0.146690725
 H  3.173438698 -4.276180113 -1.536875490
 O -2.894149739 -4.795700987 -2.734452694
 H -2.840174246 -5.657577363 -2.288144648
 H -2.476357928 -4.119709836 -2.027342318
 O -0.561717634  0.923347324 -3.737768516
 H -0.183212422  1.533038302 -3.073524410
 H -1.376848981  0.554596366 -3.453550840
 O  4.184863028  4.017938176  4.276729883
 H  3.302322946  3.852904846  3.866098149
 H  4.658022373  4.497301637  3.590145956
 O  5.733883482  1.417611516  3.948450164
 H  5.101605991  2.053183016  4.374070753
 H  5.178171681  1.182172834  3.097873367
 O  0.990933249 -0.759239792 -5.442652475
 H  1.664891366 -1.345578709 -4.996752337
 H  0.537173010 -0.208447599 -4.787137423
 O -0.743546906  1.985304306  1.247677463
 H  0.000838185  1.490108994  1.535797117
 H -1.174217791  2.230259906  2.125426917
 O  4.129432579 -0.229396311 -3.146532464
 H  5.015941480 -0.439947876 -3.424538443
 H  3.542828390 -0.909945119 -3.579033114
 O -2.473536194  2.770916797 -1.400001949
 H -1.530667243  2.736481944 -1.242054069
 H -2.693196522  1.816667253 -1.495183750
 O -0.118078309 -2.116216986  2.398295063
 H  0.632224390 -2.593754610  2.014064877
 H  0.251397096 -1.515450078  3.088202936
 O  0.730386604  2.825540179 -2.190760549
 H  0.661942922  3.689988780 -2.672874166
 H  1.671006172  2.702247097 -1.952388276
 O  4.257679801 -5.423925928 -2.638505139
 H  5.211675458 -5.040769197 -2.509762289
 H  4.143275223 -5.585076319 -3.621005694
 O -3.171793635 -0.507099717 -4.226864169
 H -2.756072432 -1.199739900 -4.775988612
 H -3.599104843  0.046217542 -4.957234493
 O -1.455547814  5.290497960 -4.817475455
 H -1.382794178  4.483548685 -5.313704050
 H -2.088401065  5.095306391 -4.058633369
 O  3.352642028  2.199624520 -1.764053921
 H  3.405237920  1.459444484 -2.379967889
 H  3.957605210  2.934624194 -2.167227062
 O  1.772182043 -4.020324788  1.770137001
 H  1.131625795 -4.537830002  1.217936759
 H  1.974184724 -4.542250877  2.621570604
 O  1.524414370  1.383514686  2.709806197
 H  2.307833868  1.048839880  2.246787618
 H  1.363098454  0.664607839  3.363701184
 O  2.710947548 -2.400170585 -4.255025210
 H  2.219851404 -3.246916484 -4.128123372
 H  3.306267513 -2.596092424 -5.070423602
 O  6.935241961  0.092300143 -1.394878761
 H  6.170689748 -0.110730390 -0.799872723
 H  6.739383716 -0.414788516 -2.213964348
 O -5.604464781 -2.554905097  3.149048222
 H -4.758359609 -2.523819402  3.636430485
 H -5.494045379 -3.169137834  2.393264539
 O  0.819604124 -4.415670605  6.521341016
 H  0.838420288 -3.671081549  7.239326426
 H -0.018471099 -4.244170092  6.009991260
 O  1.576314711  3.933586150  3.761213333
 H  1.212946262  2.989137876  3.634289748
 H  1.358038497  4.110184056  4.642771485
 O -2.106368109 -3.744333992 -0.215411052
 H -1.372879266 -4.391098641 -0.042928851
 H -1.822980707 -2.783790005 -0.006425874
 O  0.926182201 -1.961433377 -2.059896419
 H  0.160204628 -1.801375401 -1.421353945
 H  1.712218652 -2.265657143 -1.540738238
 O  4.525926311 -1.025347685 -0.548230409
 H  4.305527138 -1.956905083 -0.586839248
 H  4.266869039 -0.614742314 -1.382323490
 O -0.746469028 -1.268410594 -0.024722154
 H -1.286801084 -0.436754303 -0.108616657
 H -0.411033321 -1.345656300  0.845225413
 O  3.657653257  3.020034844  0.993957377
 H  2.719767716  3.038405752  1.284498342
 H  3.578034030  2.657522676  0.059647116
      96
      2 E_pot = -8.0055567899    18.6421483111 0.0 0.0 0.0 18.6421483111 0.0 0.0 0.0 18.6421483111
 O -4.576429040  5.328875000  1.565366321
 H -3.813358907  5.344782890  0.973477058
 H -5.080145683  4.581497421  1.176101436
 O -0.093761546  4.216197541  0.081654924
 H -0.442682281  3.482106414  0.542945481
 H  0.403724516  3.755517870 -0.653073729
 O -1.483000773  2.685391185  4.127282155
 H -2.402514982  2.484005611  3.925244521
 H -1.277057320  2.195618673  4.903954151
 O -2.447138938 -2.540260812 -6.144426669
 H -1.960469516 -2.262151166 -6.891979119
 H -1.988755950 -3.269149948 -5.766183660
 O  4.032568464  0.152668895  2.190621305
 H  4.315893365 -0.031967879  1.268281221
 H  4.058559502 -0.694201297  2.639076425
 O  2.947720818 -3.496829345 -1.017444496
 H  2.606281417 -3.916905592 -0.188528853
 H  3.151359198 -4.265117563 -1.535823798
 O -2.897935623 -4.793086759 -2.731177602
 H -2.870183523 -5.594042815 -2.282197741
 H -2.531705745 -4.139406539 -2.041244995
 O -0.569470440  0.925143608 -3.744748950
 H -0.215215573  1.501212701 -3.065795465
 H -1.384743680  0.564349390 -3.427505902
 O  4.190306431  4.018713494  4.275251781
 H  3.352180009  3.876977194  3.859035968
 H  4.655081468  4.501652200  3.607552040
 O  5.726898804  1.410819945  3.951481265
 H  5.087547747  2.029982671  4.394146833
 H  5.203591271  1.195513441  3.127966636
 O  0.994555542 -0.758714439 -5.439680577
 H  1.665943308 -1.296768287 -5.010142714
 H  0.536696504 -0.206774478 -4.810597822
 O -0.740503057  1.985166988  1.247558387
 H  0.007520385  1.485384167  1.535305563
 H -1.177915192  2.198819998  2.124197350
 O  4.131015549 -0.225057135 -3.144683077
 H  5.005403760 -0.447861564 -3.423022801
 H  3.560326232 -0.888654071 -3.548958289
 O -2.474134212  2.772883144 -1.404886715
 H -1.528900352  2.751024105 -1.268981973
 H -2.679373793  1.844111962 -1.509188347
 O -0.111811696 -2.116294679  2.393122158
 H  0.649386837 -2.586294740  2.026211651
 H  0.233479067 -1.548344044  3.070261119
 O  0.732986509  2.828664014 -2.191849411
 H  0.685081499  3.670147534 -2.652644728
 H  1.639492886  2.706503757 -1.964131576
 O  4.260954272 -5.419428673 -2.634128513
 H  5.166153536 -5.047167066 -2.550017479
 H  4.120879279 -5.534988378 -3.629478019
 O -3.165700159 -0.505946209 -4.228062836
 H -2.753787705 -1.170937270 -4.728465825
 H -3.581965123  0.001708462 -4.940043484
 O -1.462572800  5.280557017 -4.828939912
 H -1.371511436  4.496223192 -5.308650952
 H -2.051894570  5.099954577 -4.087928676
 O  3.352487662  2.208024450 -1.773667523
 H  3.406444345  1.491800516 -2.354328453
 H  3.924870937  2.870566074 -2.124112316
 O  1.771562167 -4.023698049  1.771697438
 H  1.152612362 -4.539608581  1.251395410
 H  1.964381831 -4.542777020  2.598114019
 O  1.523019717  1.382318879  2.707836179
 H  2.293561974  1.028488925  2.247141171
 H  1.378630777  0.683873521  3.351346086
 O  2.712130649 -2.404113581 -4.258099800
 H  2.247982745 -3.224709293 -4.140259379
 H  3.287643927 -2.580926073 -5.016713400
 O  6.936854283  0.090699322 -1.396772308
 H  6.194485450 -0.082361255 -0.816078772
 H  6.730866922 -0.431055956 -2.185610828
 O -5.603758788 -2.560950546  3.147145082
 H -4.764531663 -2.550176476  3.646500519
 H -5.512556413 -3.142563460  2.419697083
 O  0.817605820 -4.424205959  6.527404660
 H  0.824956598 -3.692387911  7.227838511
 H -0.002627906 -4.244689440  6.047336323
 O  1.574714138  3.932495508  3.759310640
 H  1.211183866  3.029009595  3.634646408
 H  1.342564305  4.096150092  4.643909035
 O -2.101258007 -3.746867284 -0.211382553
 H -1.379779260 -4.335359870 -0.050064276
 H -1.824134907 -2.825605728 -0.019329445
 O  0.925902392 -1.961515455 -2.055860951
 H  0.197419244 -1.788041787 -1.457517375
 H  1.681004420 -2.217236783 -1.550413973
 O  4.520946358 -1.020449313 -0.549036269
 H  4.318533514 -1.932552614 -0.598490770
 H  4.238796464 -0.641275780 -1.367586150
 O -0.753808476 -1.273849831 -0.021327704
 H -1.290896087 -0.463570408 -0.110615733
 H -0.420172326 -1.332874100  0.822800045
 O  3.659398927  3.018650073  0.999044605
 H  2.745210685  3.022250135  1.282059418
 H  3.614938639  2.707051288  0.121965576
